tests/data/generic-models/p1uhs23_1247/p1udt21301/PVDeployments/p1uhs23_1247__p1udt21301__close__1__15.dss
Redirect ../OpenDSS/Master.dss

// PV Scenario for 377.31348613163505 kW total size, Scenario type close, Sample 1 and penetration 15% (PV to load ratio) 
! =====================PV SCENARIO FILE==============================
New PVSystem.small_p1ulv22116_1_2_pv phases=1 bus1=p1ulv22116.1.2 kv=0.2402 irradiance=1 Pmpp=24.931 %Pmpp=100 kVA=24.931 conn=wye %cutin=0.1 %cutout=0.1 Vmaxpu=1.2 yearly=1563529_30.18_-97.49_2019
New PVSystem.small_p1ulv35483_1_2_pv phases=1 bus1=p1ulv35483.1.2 kv=0.2402 irradiance=1 Pmpp=49.881 %Pmpp=100 kVA=49.881 conn=wye %cutin=0.1 %cutout=0.1 Vmaxpu=1.2 yearly=1571313_30.20_-97.39_2019
New PVSystem.small_p1ulv32242_1_2_pv phases=1 bus1=p1ulv32242.1.2 kv=0.2402 irradiance=1 Pmpp=20.882 %Pmpp=100 kVA=20.882 conn=wye %cutin=0.1 %cutout=0.1 Vmaxpu=1.2 yearly=1535431_30.28_-97.83_2019
New PVSystem.small_p1ulv18941_1_2_pv phases=1 bus1=p1ulv18941.1.2 kv=0.2402 irradiance=1 Pmpp=22.217 %Pmpp=100 kVA=22.217 conn=wye %cutin=0.1 %cutout=0.1 Vmaxpu=1.2 yearly=1553723_30.30_-97.61_2019
New PVSystem.small_p1ulv65457_1_2_pv phases=1 bus1=p1ulv65457.1.2 kv=0.2402 irradiance=1 Pmpp=21.224 %Pmpp=100 kVA=21.224 conn=wye %cutin=0.1 %cutout=0.1 Vmaxpu=1.2 yearly=1560321_30.34_-97.53_2019
New PVSystem.small_p1ulv2538_1_2_pv phases=1 bus1=p1ulv2538.1.2 kv=0.2402 irradiance=1 Pmpp=23.059 %Pmpp=100 kVA=23.059 conn=wye %cutin=0.1 %cutout=0.1 Vmaxpu=1.2 yearly=1518805_30.28_-98.03_2019
New PVSystem.small_p1ulv5055_1_2_pv phases=1 bus1=p1ulv5055.1.2 kv=0.2402 irradiance=1 Pmpp=36.944 %Pmpp=100 kVA=36.944 conn=wye %cutin=0.1 %cutout=0.1 Vmaxpu=1.2 yearly=1552056_30.38_-97.63_2019
New PVSystem.small_p1ulv12590_1_2_pv phases=1 bus1=p1ulv12590.1.2 kv=0.2402 irradiance=1 Pmpp=44.969 %Pmpp=100 kVA=44.969 conn=wye %cutin=0.1 %cutout=0.1 Vmaxpu=1.2 yearly=1560319_30.38_-97.53_2019
New PVSystem.small_p1ulv9482_1_2_pv phases=1 bus1=p1ulv9482.1.2 kv=0.2402 irradiance=1 Pmpp=25.615 %Pmpp=100 kVA=25.615 conn=wye %cutin=0.1 %cutout=0.1 Vmaxpu=1.2 yearly=1568225_30.16_-97.43_2019
New PVSystem.small_p1ulv43670_1_2_pv phases=1 bus1=p1ulv43670.1.2 kv=0.2402 irradiance=1 Pmpp=12.892 %Pmpp=100 kVA=12.892 conn=wye %cutin=0.1 %cutout=0.1 Vmaxpu=1.2 yearly=1571309_30.28_-97.39_2019
New PVSystem.small_p1ulv58566_1_2_pv phases=1 bus1=p1ulv58566.1.2 kv=0.2402 irradiance=1 Pmpp=21.015 %Pmpp=100 kVA=21.015 conn=wye %cutin=0.1 %cutout=0.1 Vmaxpu=1.2 yearly=1513830_30.28_-98.09_2019
New PVSystem.small_p1ulv28507_1_2_pv phases=1 bus1=p1ulv28507.1.2 kv=0.2402 irradiance=1 Pmpp=52.051 %Pmpp=100 kVA=52.051 conn=wye %cutin=0.1 %cutout=0.1 Vmaxpu=1.2 yearly=1550397_30.30_-97.65_2019
New PVSystem.small_p1ulv17002_1_2_pv phases=1 bus1=p1ulv17002.1.2 kv=0.2402 irradiance=1 Pmpp=21.632 %Pmpp=100 kVA=21.632 conn=wye %cutin=0.1 %cutout=0.1 Vmaxpu=1.2 yearly=1535434_30.22_-97.83_2019

Solve
